*Heading
** Job name: Job-1 Model name: Model-1
** Generated by: Abaqus/CAE 2020
*Preprint, echo=NO, model=NO, history=NO, contact=NO
**
** PARTS
**
*Part, name=Part-1
*Node
      1,          10.,          10.,         100.
      2,          10.,           8.,         100.
      3,          10.,           6.,         100.
      4,          10.,           4.,         100.
      5,          10.,           2.,         100.
      6,          10.,           0.,         100.
      7,          10.,          10.,          95.
      8,          10.,           8.,          95.
      9,          10.,           6.,          95.
     10,          10.,           4.,          95.
     11,          10.,           2.,          95.
     12,          10.,           0.,          95.
     13,          10.,          10.,          90.
     14,          10.,           8.,          90.
     15,          10.,           6.,          90.
     16,          10.,           4.,          90.
     17,          10.,           2.,          90.
     18,          10.,           0.,          90.
     19,          10.,          10.,          85.
     20,          10.,           8.,          85.
** ... 736 like lines cut
*Element, type=C3D8
  1, 127, 128, 134, 133,   1,   2,   8,   7
  2, 128, 129, 135, 134,   2,   3,   9,   8
  3, 129, 130, 136, 135,   3,   4,  10,   9
  4, 130, 131, 137, 136,   4,   5,  11,  10
  5, 131, 132, 138, 137,   5,   6,  12,  11
  6, 133, 134, 140, 139,   7,   8,  14,  13
  7, 134, 135, 141, 140,   8,   9,  15,  14
  8, 135, 136, 142, 141,   9,  10,  16,  15
  9, 136, 137, 143, 142,  10,  11,  17,  16
 10, 137, 138, 144, 143,  11,  12,  18,  17
 11, 139, 140, 146, 145,  13,  14,  20,  19
 12, 140, 141, 147, 146,  14,  15,  21,  20
 13, 141, 142, 148, 147,  15,  16,  22,  21
 14, 142, 143, 149, 148,  16,  17,  23,  22
 15, 143, 144, 150, 149,  17,  18,  24,  23
 16, 145, 146, 152, 151,  19,  20,  26,  25
 17, 146, 147, 153, 152,  20,  21,  27,  26
 18, 147, 148, 154, 153,  21,  22,  28,  27
 19, 148, 149, 155, 154,  22,  23,  29,  28
 20, 149, 150, 156, 155,  23,  24,  30,  29
** ... 480 like lines cut
*Nset, nset=Set-1, generate
   1,  756,    1
*Elset, elset=Set-1, generate
   1,  500,    1
*Nset, nset=fixed
 121, 122, 123, 124, 125, 126, 247, 248, 249, 250, 251, 252, 373, 374, 375, 376
 377, 378, 499, 500, 501, 502, 503, 504, 625, 626, 627, 628, 629, 630, 751, 752
 753, 754, 755, 756
*Nset, nset=forced
   1,   2,   3,   4,   5,   6, 127, 128, 129, 130, 131, 132, 253, 254, 255, 256
 257, 258, 379, 380, 381, 382, 383, 384, 505, 506, 507, 508, 509, 510, 631, 632
 633, 634, 635, 636
** Section: Section-1
*Solid Section, elset=Set-1, material=Material-1
,
*End Part
**  
**
** ASSEMBLY
**
*Assembly, name=Assembly
**  
*Instance, name=Part-1-1, part=Part-1
*End Instance
**  
*End Assembly
*Amplitude, name=Amp-1, definition=PERIODIC
1,              1.,              0.,              0.
             1.,              1.
** 
** MATERIALS
** 
*Material, name=Material-1
*Density
2000.,
*Elastic
 1e+10, 0.25
** ----------------------------------------------------------------
** 
** STEP: Step-1
** 
*Step, name=Step-1, nlgeom=NO, perturbation
*Frequency, eigensolver=Lanczos, sim, acoustic coupling=on, normalization=mass
100, , , , , 
** 
** BOUNDARY CONDITIONS
** 
** Name: BC-1 Type: Displacement/Rotation
*Boundary
Part-1-1.fixed, 1, 1
Part-1-1.fixed, 2, 2
Part-1-1.fixed, 3, 3
** 
** OUTPUT REQUESTS
** 
*Restart, write, frequency=0
** 
** FIELD OUTPUT: F-Output-1
** 
*Output, field, variable=PRESELECT
*End Step
