1

   Abaqus 2023.HF4                                  Date 09-Oct-2024   Time 19:52:16
   For use by AALTO UNIVERSITY under license from Dassault Systemes or its subsidiary.

                                                                                 
                                                                                 
 STEP    1     INCREMENT     1     STEP TIME    0.00    


                        S T E P       1     S T A T I C   A N A L Y S I S


                                                                                          

     AUTOMATIC TIME CONTROL WITH -
          A SUGGESTED INITIAL TIME INCREMENT OF                 1.00    
          AND A TOTAL TIME PERIOD OF                            1.00    
          THE MINIMUM TIME INCREMENT ALLOWED IS                1.000E-05
          THE MAXIMUM TIME INCREMENT ALLOWED IS                 1.00    

     LINEAR EQUATION SOLVER TYPE         DIRECT SPARSE

 CONVERGENCE TOLERANCE PARAMETERS FOR FORCE    
     CRITERION FOR RESIDUAL FORCE     FOR A NONLINEAR PROBLEM          5.000E-03
     CRITERION FOR DISP.    CORRECTION IN A NONLINEAR PROBLEM          1.000E-02
     INITIAL VALUE OF TIME AVERAGE FORCE                               1.000E-02
     AVERAGE FORCE     IS TIME AVERAGE FORCE    
     ALTERNATE CRIT. FOR RESIDUAL FORCE     FOR A NONLINEAR PROBLEM    2.000E-02
     CRITERION FOR ZERO FORCE     RELATIVE TO TIME AVRG. FORCE         1.000E-05
     CRITERION FOR RESIDUAL FORCE     WHEN THERE IS ZERO FLUX          1.000E-05
     CRITERION FOR DISP.    CORRECTION WHEN THERE IS ZERO FLUX         1.000E-03
     CRITERION FOR RESIDUAL FORCE     FOR A LINEAR INCREMENT           1.000E-08
     FIELD CONVERSION RATIO                                             1.00    
     CRITERION FOR ZERO FORCE     REL. TO TIME AVRG. MAX. FORCE        1.000E-05
     CRITERION FOR ZERO DISP.    RELATIVE TO CHARACTERISTIC LENGTH     1.000E-08

     VOLUMETRIC STRAIN COMPATIBILITY TOLERANCE FOR HYBRID SOLIDS       1.000E-05
     AXIAL STRAIN COMPATIBILITY TOLERANCE FOR HYBRID BEAMS             1.000E-05
     TRANS. SHEAR STRAIN COMPATIBILITY TOLERANCE FOR HYBRID BEAMS      1.000E-05
     SOFT CONTACT CONSTRAINT COMPATIBILITY TOLERANCE FOR P>P0          5.000E-03
     SOFT CONTACT CONSTRAINT COMPATIBILITY TOLERANCE FOR P=0.0         0.100    
     CONTACT FORCE ERROR TOLERANCE FOR CONVERT SDI=YES                 1.00    
     DISPLACEMENT COMPATIBILITY TOLERANCE FOR DCOUP ELEMENTS           1.000E-05
     ROTATION COMPATIBILITY TOLERANCE FOR DCOUP ELEMENTS               1.000E-05

 EQUILIBRIUM WILL BE CHECKED FOR SEVERE DISCONTINUITY ITERATIONS

 TIME INCREMENTATION CONTROL PARAMETERS:
     FIRST EQUILIBRIUM ITERATION FOR CONSECUTIVE DIVERGENCE CHECK              4
     EQUILIBRIUM ITERATION AT WHICH LOG. CONVERGENCE RATE CHECK BEGINS         8
     EQUILIBRIUM ITERATION AFTER WHICH ALTERNATE RESIDUAL IS USED              9
     MAXIMUM EQUILIBRIUM ITERATIONS ALLOWED                                   16
     EQUILIBRIUM ITERATION COUNT FOR CUT-BACK IN NEXT INCREMENT               10
     MAXIMUM EQUILIB. ITERS IN TWO INCREMENTS FOR TIME INCREMENT INCREASE      4
     MAXIMUM ITERATIONS FOR SEVERE DISCONTINUITIES                            50
     MAXIMUM ATTEMPTS ALLOWED IN AN INCREMENT                                  5
     MAXIMUM DISCON. ITERS IN TWO INCREMENTS FOR TIME INCREMENT INCREASE      50
     MAXIMUM CONTACT AUGMENTATIONS FOR *SURFACE BEHAVIOR,AUGMENTED LAGRANGE   50
     CUT-BACK FACTOR AFTER DIVERGENCE                                 0.2500    
     CUT-BACK FACTOR FOR TOO SLOW CONVERGENCE                         0.5000    
     CUT-BACK FACTOR AFTER TOO MANY EQUILIBRIUM ITERATIONS            0.7500    
     CUT-BACK FACTOR AFTER TOO MANY SEVERE DISCONTINUITY ITERATIONS   0.2500    
     CUT-BACK FACTOR AFTER PROBLEMS IN ELEMENT ASSEMBLY               0.2500    
     INCREASE FACTOR AFTER TWO INCREMENTS THAT CONVERGE QUICKLY        1.500    
     MAX. TIME INCREMENT INCREASE FACTOR ALLOWED                       1.500    
     MAX. TIME INCREMENT INCREASE FACTOR ALLOWED (DYNAMICS)            1.250    
     MAX. TIME INCREMENT INCREASE FACTOR ALLOWED (DIFFUSION)           2.000    
     MINIMUM TIME INCREMENT RATIO FOR EXTRAPOLATION TO OCCUR          0.1000    
     MAX. RATIO OF TIME INCREMENT TO STABILITY LIMIT                   1.000    
     FRACTION OF STABILITY LIMIT FOR NEW TIME INCREMENT               0.9500    
     TIME INCREMENT INCREASE FACTOR BEFORE A TIME POINT                1.000    
     GLOBAL STABILIZATION CONTROL IS NOT USED

          PRINT OF INCREMENT NUMBER, TIME, ETC., EVERY    1  INCREMENTS

     THE MAXIMUM NUMBER OF INCREMENTS IN THIS STEP IS                     100

     LINEAR EXTRAPOLATION WILL BE USED

     CHARACTERISTIC ELEMENT LENGTH      2.88    

     DETAILS REGARDING ACTUAL SOLUTION WAVEFRONT REQUESTED

     DETAILED OUTPUT OF DIAGNOSTICS TO DATABASE REQUESTED

     PRINT OF INCREMENT NUMBER, TIME, ETC., TO THE MESSAGE FILE EVERY     1  INCREMENTS

     ELEMENT OPERATIONS WILL BE CARRIED OUT IN PARALLEL USING   8 THREADS ON 1 DOMAIN

     PARALLEL CONTACT TRACKING ENABLED


     COLLECTING MODEL CONSTRAINT INFORMATION FOR OVERCONSTRAINT CHECKS

     COLLECTING STEP CONSTRAINT INFORMATION FOR OVERCONSTRAINT CHECKS


  INCREMENT     1 STARTS. ATTEMPT NUMBER  1, TIME INCREMENT   1.00    
 
     INITIAL ELEMENT LOAD BALANCE
            DOMAIN    1     THREAD    NUMBER OF ELEMENTS
                              1            184
                              2            136
                              3            120
                              4            88
                              5            136
                              6            120
                              7            88
                              8            168
 
	SYMMETRIC NEW DIRECT SPARSE SOLVER RUNNING ON
 	1 HOST x 1 MPI RANK PER HOST x 8 THREADS PER RANK
        NUMBER OF EQUATIONS:  3480
        NUMBER OF RHS:        1
        NUMBER OF FLOPS:      4.261e+07
        SOLVER ELAPSED TIME:  7ms
 

 ***WARNING: THE SYSTEM MATRIX HAS 705 NEGATIVE EIGENVALUES.

     NEGATIVE EIGENVALUES MEAN THAT THE SYSTEM MATRIX IS NOT 
     POSITIVE DEFINITE:
     FOR EXAMPLE, A BIFURCATION (BUCKLING) LOAD MAY HAVE BEEN EXCEEDED.

               CONVERGENCE CHECKS FOR EQUILIBRIUM ITERATION     1


 AVERAGE FORCE                      1.159E+06   TIME AVG. FORCE       1.159E+06
 LARGEST SCALED RESIDUAL FORCE     -1.104E+08   AT NODE        848   DOF  1
   INSTANCE: COMPOSITE_PLIES-1                                                               
  CORRESPONDING RESIDUAL FORCE     -1.104E+08
 LARGEST INCREMENT OF DISP.         -235.       AT NODE        499   DOF  2
   INSTANCE: COMPOSITE_PLIES-1                                                               
 LARGEST CORRECTION TO DISP.        -235.       AT NODE        499   DOF  2
   INSTANCE: COMPOSITE_PLIES-1                                                               
          FORCE     EQUILIBRIUM NOT ACHIEVED WITHIN TOLERANCE.
 
	SYMMETRIC NEW DIRECT SPARSE SOLVER RUNNING ON
 	1 HOST x 1 MPI RANK PER HOST x 8 THREADS PER RANK
        NUMBER OF EQUATIONS:  3480
        NUMBER OF RHS:        1
        NUMBER OF FLOPS:      4.261e+07
        SOLVER ELAPSED TIME:  3ms
 

 ***WARNING: THE SYSTEM MATRIX HAS 688 NEGATIVE EIGENVALUES.
             EXPLANATIONS ARE SUGGESTED AFTER THE FIRST OCCURRENCE OF THIS MESSAGE.

               CONVERGENCE CHECKS FOR EQUILIBRIUM ITERATION     2


 AVERAGE FORCE                      3.140E+08   TIME AVG. FORCE       3.140E+08
 LARGEST SCALED RESIDUAL FORCE     -2.365E+10   AT NODE       1057   DOF  1
   INSTANCE: COMPOSITE_PLIES-1                                                               
  CORRESPONDING RESIDUAL FORCE     -2.365E+10
 LARGEST INCREMENT OF DISP.         6.116E+04   AT NODE        630   DOF  3
   INSTANCE: COMPOSITE_PLIES-1                                                               
 LARGEST CORRECTION TO DISP.        6.113E+04   AT NODE        630   DOF  3
   INSTANCE: COMPOSITE_PLIES-1                                                               
          FORCE     EQUILIBRIUM NOT ACHIEVED WITHIN TOLERANCE.
 
	SYMMETRIC NEW DIRECT SPARSE SOLVER RUNNING ON
 	1 HOST x 1 MPI RANK PER HOST x 8 THREADS PER RANK
        NUMBER OF EQUATIONS:  3480
        NUMBER OF RHS:        1
        NUMBER OF FLOPS:      4.261e+07
        SOLVER ELAPSED TIME:  3ms
 

 ***WARNING: THE SYSTEM MATRIX HAS 751 NEGATIVE EIGENVALUES.
             EXPLANATIONS ARE SUGGESTED AFTER THE FIRST OCCURRENCE OF THIS MESSAGE.

               CONVERGENCE CHECKS FOR EQUILIBRIUM ITERATION     3


 AVERAGE FORCE                      7.006E+10   TIME AVG. FORCE       7.006E+10
 LARGEST SCALED RESIDUAL FORCE      4.786E+12   AT NODE        573   DOF  2
   INSTANCE: COMPOSITE_PLIES-1                                                               
  CORRESPONDING RESIDUAL FORCE      4.786E+12
 LARGEST INCREMENT OF DISP.         1.293E+07   AT NODE        638   DOF  3
   INSTANCE: COMPOSITE_PLIES-1                                                               
 LARGEST CORRECTION TO DISP.        1.293E+07   AT NODE        638   DOF  3
   INSTANCE: COMPOSITE_PLIES-1                                                               
          FORCE     EQUILIBRIUM NOT ACHIEVED WITHIN TOLERANCE.
 
	SYMMETRIC NEW DIRECT SPARSE SOLVER RUNNING ON
 	1 HOST x 1 MPI RANK PER HOST x 8 THREADS PER RANK
        NUMBER OF EQUATIONS:  3480
        NUMBER OF RHS:        1
        NUMBER OF FLOPS:      4.261e+07
        SOLVER ELAPSED TIME:  3ms
 

 ***WARNING: THE SYSTEM MATRIX HAS 695 NEGATIVE EIGENVALUES.
             EXPLANATIONS ARE SUGGESTED AFTER THE FIRST OCCURRENCE OF THIS MESSAGE.

               CONVERGENCE CHECKS FOR EQUILIBRIUM ITERATION     4


 AVERAGE FORCE                      1.253E+13   TIME AVG. FORCE       1.253E+13
 LARGEST SCALED RESIDUAL FORCE     -9.169E+14   AT NODE        985   DOF  2
   INSTANCE: COMPOSITE_PLIES-1                                                               
  CORRESPONDING RESIDUAL FORCE     -9.169E+14
 LARGEST INCREMENT OF DISP.         1.781E+09   AT NODE        512   DOF  1
   INSTANCE: COMPOSITE_PLIES-1                                                               
 LARGEST CORRECTION TO DISP.        1.780E+09   AT NODE        512   DOF  1
   INSTANCE: COMPOSITE_PLIES-1                                                               
          FORCE     EQUILIBRIUM NOT ACHIEVED WITHIN TOLERANCE.
 

 ***NOTE: THE SOLUTION APPEARS TO BE DIVERGING. CONVERGENCE IS JUDGED UNLIKELY.


  INCREMENT     1 STARTS. ATTEMPT NUMBER  2, TIME INCREMENT  0.250    
 
	SYMMETRIC NEW DIRECT SPARSE SOLVER RUNNING ON
 	1 HOST x 1 MPI RANK PER HOST x 8 THREADS PER RANK
        NUMBER OF EQUATIONS:  3480
        NUMBER OF RHS:        1
        NUMBER OF FLOPS:      4.261e+07
        SOLVER ELAPSED TIME:  3ms
 

 ***WARNING: THE SYSTEM MATRIX HAS 731 NEGATIVE EIGENVALUES.
             EXPLANATIONS ARE SUGGESTED AFTER THE FIRST OCCURRENCE OF THIS MESSAGE.

               CONVERGENCE CHECKS FOR EQUILIBRIUM ITERATION     1


 AVERAGE FORCE                      2.654E+05   TIME AVG. FORCE       2.654E+05
 LARGEST SCALED RESIDUAL FORCE      1.182E+07   AT NODE         52   DOF  2
   INSTANCE: COMPOSITE_PLIES-1                                                               
  CORRESPONDING RESIDUAL FORCE      1.182E+07
 LARGEST INCREMENT OF DISP.          41.7       AT NODE        638   DOF  3
   INSTANCE: COMPOSITE_PLIES-1                                                               
 LARGEST CORRECTION TO DISP.         41.7       AT NODE        638   DOF  3
   INSTANCE: COMPOSITE_PLIES-1                                                               
          FORCE     EQUILIBRIUM NOT ACHIEVED WITHIN TOLERANCE.
 
	SYMMETRIC NEW DIRECT SPARSE SOLVER RUNNING ON
 	1 HOST x 1 MPI RANK PER HOST x 8 THREADS PER RANK
        NUMBER OF EQUATIONS:  3480
        NUMBER OF RHS:        1
        NUMBER OF FLOPS:      4.261e+07
        SOLVER ELAPSED TIME:  3ms
 

 ***WARNING: THE SYSTEM MATRIX HAS 733 NEGATIVE EIGENVALUES.
             EXPLANATIONS ARE SUGGESTED AFTER THE FIRST OCCURRENCE OF THIS MESSAGE.

               CONVERGENCE CHECKS FOR EQUILIBRIUM ITERATION     2


 AVERAGE FORCE                      1.884E+07   TIME AVG. FORCE       1.884E+07
 LARGEST SCALED RESIDUAL FORCE     -1.673E+09   AT NODE        839   DOF  3
   INSTANCE: COMPOSITE_PLIES-1                                                               
  CORRESPONDING RESIDUAL FORCE     -1.673E+09
 LARGEST INCREMENT OF DISP.         4.038E+03   AT NODE        839   DOF  3
   INSTANCE: COMPOSITE_PLIES-1                                                               
 LARGEST CORRECTION TO DISP.        4.047E+03   AT NODE        839   DOF  3
   INSTANCE: COMPOSITE_PLIES-1                                                               
          FORCE     EQUILIBRIUM NOT ACHIEVED WITHIN TOLERANCE.
 
	SYMMETRIC NEW DIRECT SPARSE SOLVER RUNNING ON
 	1 HOST x 1 MPI RANK PER HOST x 8 THREADS PER RANK
        NUMBER OF EQUATIONS:  3480
        NUMBER OF RHS:        1
        NUMBER OF FLOPS:      4.261e+07
        SOLVER ELAPSED TIME:  3ms
 

 ***WARNING: THE SYSTEM MATRIX HAS 661 NEGATIVE EIGENVALUES.
             EXPLANATIONS ARE SUGGESTED AFTER THE FIRST OCCURRENCE OF THIS MESSAGE.

               CONVERGENCE CHECKS FOR EQUILIBRIUM ITERATION     3


 AVERAGE FORCE                      1.830E+09   TIME AVG. FORCE       1.830E+09
 LARGEST SCALED RESIDUAL FORCE      1.711E+11   AT NODE       1091   DOF  2
   INSTANCE: COMPOSITE_PLIES-1                                                               
  CORRESPONDING RESIDUAL FORCE      1.711E+11
 LARGEST INCREMENT OF DISP.        -3.434E+05   AT NODE       1091   DOF  2
   INSTANCE: COMPOSITE_PLIES-1                                                               
 LARGEST CORRECTION TO DISP.       -3.435E+05   AT NODE       1091   DOF  2
   INSTANCE: COMPOSITE_PLIES-1                                                               
          FORCE     EQUILIBRIUM NOT ACHIEVED WITHIN TOLERANCE.
 
	SYMMETRIC NEW DIRECT SPARSE SOLVER RUNNING ON
 	1 HOST x 1 MPI RANK PER HOST x 8 THREADS PER RANK
        NUMBER OF EQUATIONS:  3480
        NUMBER OF RHS:        1
        NUMBER OF FLOPS:      4.261e+07
        SOLVER ELAPSED TIME:  3ms
 

 ***WARNING: THE SYSTEM MATRIX HAS 687 NEGATIVE EIGENVALUES.
             EXPLANATIONS ARE SUGGESTED AFTER THE FIRST OCCURRENCE OF THIS MESSAGE.

               CONVERGENCE CHECKS FOR EQUILIBRIUM ITERATION     4


 AVERAGE FORCE                      1.377E+11   TIME AVG. FORCE       1.377E+11
 LARGEST SCALED RESIDUAL FORCE     -9.739E+12   AT NODE        318   DOF  2
   INSTANCE: COMPOSITE_PLIES-1                                                               
  CORRESPONDING RESIDUAL FORCE     -9.739E+12
 LARGEST INCREMENT OF DISP.        -2.349E+07   AT NODE        801   DOF  3
   INSTANCE: COMPOSITE_PLIES-1                                                               
 LARGEST CORRECTION TO DISP.       -2.347E+07   AT NODE        801   DOF  3
   INSTANCE: COMPOSITE_PLIES-1                                                               
          FORCE     EQUILIBRIUM NOT ACHIEVED WITHIN TOLERANCE.
 

 ***NOTE: THE SOLUTION APPEARS TO BE DIVERGING. CONVERGENCE IS JUDGED UNLIKELY.


  INCREMENT     1 STARTS. ATTEMPT NUMBER  3, TIME INCREMENT  6.250E-02
 
	SYMMETRIC NEW DIRECT SPARSE SOLVER RUNNING ON
 	1 HOST x 1 MPI RANK PER HOST x 8 THREADS PER RANK
        NUMBER OF EQUATIONS:  3480
        NUMBER OF RHS:        1
        NUMBER OF FLOPS:      4.261e+07
        SOLVER ELAPSED TIME:  3ms
 

 ***WARNING: THE SYSTEM MATRIX HAS 675 NEGATIVE EIGENVALUES.
             EXPLANATIONS ARE SUGGESTED AFTER THE FIRST OCCURRENCE OF THIS MESSAGE.

               CONVERGENCE CHECKS FOR EQUILIBRIUM ITERATION     1


 AVERAGE FORCE                      3.966E+04   TIME AVG. FORCE       3.966E+04
 LARGEST SCALED RESIDUAL FORCE      2.191E+06   AT NODE        509   DOF  2
   INSTANCE: COMPOSITE_PLIES-1                                                               
  CORRESPONDING RESIDUAL FORCE      2.191E+06
 LARGEST INCREMENT OF DISP.         -7.35       AT NODE        128   DOF  3
   INSTANCE: COMPOSITE_PLIES-1                                                               
 LARGEST CORRECTION TO DISP.        -7.35       AT NODE        128   DOF  3
   INSTANCE: COMPOSITE_PLIES-1                                                               
          FORCE     EQUILIBRIUM NOT ACHIEVED WITHIN TOLERANCE.
 
	SYMMETRIC NEW DIRECT SPARSE SOLVER RUNNING ON
 	1 HOST x 1 MPI RANK PER HOST x 8 THREADS PER RANK
        NUMBER OF EQUATIONS:  3480
        NUMBER OF RHS:        1
        NUMBER OF FLOPS:      4.261e+07
        SOLVER ELAPSED TIME:  3ms
 

 ***WARNING: THE SYSTEM MATRIX HAS 680 NEGATIVE EIGENVALUES.
             EXPLANATIONS ARE SUGGESTED AFTER THE FIRST OCCURRENCE OF THIS MESSAGE.

               CONVERGENCE CHECKS FOR EQUILIBRIUM ITERATION     2


 AVERAGE FORCE                      9.162E+07   TIME AVG. FORCE       9.162E+07
 LARGEST SCALED RESIDUAL FORCE     -7.230E+09   AT NODE        522   DOF  2
   INSTANCE: COMPOSITE_PLIES-1                                                               
  CORRESPONDING RESIDUAL FORCE     -7.230E+09
 LARGEST INCREMENT OF DISP.         3.160E+04   AT NODE        588   DOF  3
   INSTANCE: COMPOSITE_PLIES-1                                                               
 LARGEST CORRECTION TO DISP.        3.160E+04   AT NODE        588   DOF  3
   INSTANCE: COMPOSITE_PLIES-1                                                               
          FORCE     EQUILIBRIUM NOT ACHIEVED WITHIN TOLERANCE.
 
	SYMMETRIC NEW DIRECT SPARSE SOLVER RUNNING ON
 	1 HOST x 1 MPI RANK PER HOST x 8 THREADS PER RANK
        NUMBER OF EQUATIONS:  3480
        NUMBER OF RHS:        1
        NUMBER OF FLOPS:      4.261e+07
        SOLVER ELAPSED TIME:  4ms
 

 ***WARNING: THE SYSTEM MATRIX HAS 703 NEGATIVE EIGENVALUES.
             EXPLANATIONS ARE SUGGESTED AFTER THE FIRST OCCURRENCE OF THIS MESSAGE.

               CONVERGENCE CHECKS FOR EQUILIBRIUM ITERATION     3


 AVERAGE FORCE                      2.749E+10   TIME AVG. FORCE       2.749E+10
 LARGEST SCALED RESIDUAL FORCE     -1.340E+12   AT NODE        235   DOF  2
   INSTANCE: COMPOSITE_PLIES-1                                                               
  CORRESPONDING RESIDUAL FORCE     -1.340E+12
 LARGEST INCREMENT OF DISP.        -4.224E+06   AT NODE         30   DOF  1
   INSTANCE: COMPOSITE_PLIES-1                                                               
 LARGEST CORRECTION TO DISP.       -4.224E+06   AT NODE         30   DOF  1
   INSTANCE: COMPOSITE_PLIES-1                                                               
          FORCE     EQUILIBRIUM NOT ACHIEVED WITHIN TOLERANCE.
 
	SYMMETRIC NEW DIRECT SPARSE SOLVER RUNNING ON
 	1 HOST x 1 MPI RANK PER HOST x 8 THREADS PER RANK
        NUMBER OF EQUATIONS:  3480
        NUMBER OF RHS:        1
        NUMBER OF FLOPS:      4.261e+07
        SOLVER ELAPSED TIME:  3ms
 

 ***WARNING: THE SYSTEM MATRIX HAS 761 NEGATIVE EIGENVALUES.
             EXPLANATIONS ARE SUGGESTED AFTER THE FIRST OCCURRENCE OF THIS MESSAGE.

               CONVERGENCE CHECKS FOR EQUILIBRIUM ITERATION     4


 AVERAGE FORCE                      6.490E+12   TIME AVG. FORCE       6.490E+12
 LARGEST SCALED RESIDUAL FORCE      5.007E+14   AT NODE        311   DOF  2
   INSTANCE: COMPOSITE_PLIES-1                                                               
  CORRESPONDING RESIDUAL FORCE      5.007E+14
 LARGEST INCREMENT OF DISP.        -1.187E+09   AT NODE         51   DOF  1
   INSTANCE: COMPOSITE_PLIES-1                                                               
 LARGEST CORRECTION TO DISP.       -1.186E+09   AT NODE         51   DOF  1
   INSTANCE: COMPOSITE_PLIES-1                                                               
          FORCE     EQUILIBRIUM NOT ACHIEVED WITHIN TOLERANCE.
 

 ***NOTE: THE SOLUTION APPEARS TO BE DIVERGING. CONVERGENCE IS JUDGED UNLIKELY.


  INCREMENT     1 STARTS. ATTEMPT NUMBER  4, TIME INCREMENT  1.562E-02
 
	SYMMETRIC NEW DIRECT SPARSE SOLVER RUNNING ON
 	1 HOST x 1 MPI RANK PER HOST x 8 THREADS PER RANK
        NUMBER OF EQUATIONS:  3480
        NUMBER OF RHS:        1
        NUMBER OF FLOPS:      4.261e+07
        SOLVER ELAPSED TIME:  3ms
 

 ***WARNING: THE SYSTEM MATRIX HAS 717 NEGATIVE EIGENVALUES.
             EXPLANATIONS ARE SUGGESTED AFTER THE FIRST OCCURRENCE OF THIS MESSAGE.

               CONVERGENCE CHECKS FOR EQUILIBRIUM ITERATION     1


 AVERAGE FORCE                      1.249E+04   TIME AVG. FORCE       1.249E+04
 LARGEST SCALED RESIDUAL FORCE      1.184E+06   AT NODE        947   DOF  2
   INSTANCE: COMPOSITE_PLIES-1                                                               
  CORRESPONDING RESIDUAL FORCE      1.184E+06
 LARGEST INCREMENT OF DISP.         -1.86       AT NODE        592   DOF  3
   INSTANCE: COMPOSITE_PLIES-1                                                               
 LARGEST CORRECTION TO DISP.        -1.86       AT NODE        592   DOF  3
   INSTANCE: COMPOSITE_PLIES-1                                                               
          FORCE     EQUILIBRIUM NOT ACHIEVED WITHIN TOLERANCE.
 
	SYMMETRIC NEW DIRECT SPARSE SOLVER RUNNING ON
 	1 HOST x 1 MPI RANK PER HOST x 8 THREADS PER RANK
        NUMBER OF EQUATIONS:  3480
        NUMBER OF RHS:        1
        NUMBER OF FLOPS:      4.261e+07
        SOLVER ELAPSED TIME:  3ms
 

 ***WARNING: THE SYSTEM MATRIX HAS 729 NEGATIVE EIGENVALUES.
             EXPLANATIONS ARE SUGGESTED AFTER THE FIRST OCCURRENCE OF THIS MESSAGE.

               CONVERGENCE CHECKS FOR EQUILIBRIUM ITERATION     2


 AVERAGE FORCE                      3.044E+06   TIME AVG. FORCE       3.044E+06
 LARGEST SCALED RESIDUAL FORCE      2.729E+08   AT NODE        592   DOF  3
   INSTANCE: COMPOSITE_PLIES-1                                                               
  CORRESPONDING RESIDUAL FORCE      2.729E+08
 LARGEST INCREMENT OF DISP.         -682.       AT NODE        592   DOF  3
   INSTANCE: COMPOSITE_PLIES-1                                                               
 LARGEST CORRECTION TO DISP.        -680.       AT NODE        592   DOF  3
   INSTANCE: COMPOSITE_PLIES-1                                                               
          FORCE     EQUILIBRIUM NOT ACHIEVED WITHIN TOLERANCE.
 
	SYMMETRIC NEW DIRECT SPARSE SOLVER RUNNING ON
 	1 HOST x 1 MPI RANK PER HOST x 8 THREADS PER RANK
        NUMBER OF EQUATIONS:  3480
        NUMBER OF RHS:        1
        NUMBER OF FLOPS:      4.261e+07
        SOLVER ELAPSED TIME:  3ms
 

 ***WARNING: THE SYSTEM MATRIX HAS 693 NEGATIVE EIGENVALUES.
             EXPLANATIONS ARE SUGGESTED AFTER THE FIRST OCCURRENCE OF THIS MESSAGE.

               CONVERGENCE CHECKS FOR EQUILIBRIUM ITERATION     3


 AVERAGE FORCE                      7.327E+08   TIME AVG. FORCE       7.327E+08
 LARGEST SCALED RESIDUAL FORCE     -3.322E+10   AT NODE        658   DOF  2
   INSTANCE: COMPOSITE_PLIES-1                                                               
  CORRESPONDING RESIDUAL FORCE     -3.322E+10
 LARGEST INCREMENT OF DISP.        -8.091E+04   AT NODE        593   DOF  3
   INSTANCE: COMPOSITE_PLIES-1                                                               
 LARGEST CORRECTION TO DISP.       -8.119E+04   AT NODE        593   DOF  3
   INSTANCE: COMPOSITE_PLIES-1                                                               
          FORCE     EQUILIBRIUM NOT ACHIEVED WITHIN TOLERANCE.
 
	SYMMETRIC NEW DIRECT SPARSE SOLVER RUNNING ON
 	1 HOST x 1 MPI RANK PER HOST x 8 THREADS PER RANK
        NUMBER OF EQUATIONS:  3480
        NUMBER OF RHS:        1
        NUMBER OF FLOPS:      4.261e+07
        SOLVER ELAPSED TIME:  3ms
 

 ***WARNING: THE SYSTEM MATRIX HAS 676 NEGATIVE EIGENVALUES.
             EXPLANATIONS ARE SUGGESTED AFTER THE FIRST OCCURRENCE OF THIS MESSAGE.

               CONVERGENCE CHECKS FOR EQUILIBRIUM ITERATION     4


 AVERAGE FORCE                      1.760E+11   TIME AVG. FORCE       1.760E+11
 LARGEST SCALED RESIDUAL FORCE      8.843E+12   AT NODE        184   DOF  1
   INSTANCE: COMPOSITE_PLIES-1                                                               
  CORRESPONDING RESIDUAL FORCE      8.843E+12
 LARGEST INCREMENT OF DISP.        -2.844E+07   AT NODE        514   DOF  2
   INSTANCE: COMPOSITE_PLIES-1                                                               
 LARGEST CORRECTION TO DISP.       -2.843E+07   AT NODE        514   DOF  2
   INSTANCE: COMPOSITE_PLIES-1                                                               
          FORCE     EQUILIBRIUM NOT ACHIEVED WITHIN TOLERANCE.
 

 ***NOTE: THE SOLUTION APPEARS TO BE DIVERGING. CONVERGENCE IS JUDGED UNLIKELY.


  INCREMENT     1 STARTS. ATTEMPT NUMBER  5, TIME INCREMENT  3.906E-03
 
	SYMMETRIC NEW DIRECT SPARSE SOLVER RUNNING ON
 	1 HOST x 1 MPI RANK PER HOST x 8 THREADS PER RANK
        NUMBER OF EQUATIONS:  3480
        NUMBER OF RHS:        1
        NUMBER OF FLOPS:      4.261e+07
        SOLVER ELAPSED TIME:  3ms
 

 ***WARNING: THE SYSTEM MATRIX HAS 675 NEGATIVE EIGENVALUES.
             EXPLANATIONS ARE SUGGESTED AFTER THE FIRST OCCURRENCE OF THIS MESSAGE.

               CONVERGENCE CHECKS FOR EQUILIBRIUM ITERATION     1


 AVERAGE FORCE                      1.113E+03   TIME AVG. FORCE       1.113E+03
 LARGEST SCALED RESIDUAL FORCE     -8.937E+04   AT NODE        400   DOF  1
   INSTANCE: COMPOSITE_PLIES-1                                                               
  CORRESPONDING RESIDUAL FORCE     -8.937E+04
 LARGEST INCREMENT OF DISP.        -0.190       AT NODE        135   DOF  3
   INSTANCE: COMPOSITE_PLIES-1                                                               
 LARGEST CORRECTION TO DISP.       -0.190       AT NODE        135   DOF  3
   INSTANCE: COMPOSITE_PLIES-1                                                               
          FORCE     EQUILIBRIUM NOT ACHIEVED WITHIN TOLERANCE.
 
	SYMMETRIC NEW DIRECT SPARSE SOLVER RUNNING ON
 	1 HOST x 1 MPI RANK PER HOST x 8 THREADS PER RANK
        NUMBER OF EQUATIONS:  3480
        NUMBER OF RHS:        1
        NUMBER OF FLOPS:      4.261e+07
        SOLVER ELAPSED TIME:  4ms
 

 ***WARNING: THE SYSTEM MATRIX HAS 702 NEGATIVE EIGENVALUES.
             EXPLANATIONS ARE SUGGESTED AFTER THE FIRST OCCURRENCE OF THIS MESSAGE.

               CONVERGENCE CHECKS FOR EQUILIBRIUM ITERATION     2


 AVERAGE FORCE                      1.934E+05   TIME AVG. FORCE       1.934E+05
 LARGEST SCALED RESIDUAL FORCE      1.470E+07   AT NODE       1054   DOF  2
   INSTANCE: COMPOSITE_PLIES-1                                                               
  CORRESPONDING RESIDUAL FORCE      1.470E+07
 LARGEST INCREMENT OF DISP.         -41.0       AT NODE        614   DOF  3
   INSTANCE: COMPOSITE_PLIES-1                                                               
 LARGEST CORRECTION TO DISP.        -41.0       AT NODE        614   DOF  3
   INSTANCE: COMPOSITE_PLIES-1                                                               
          FORCE     EQUILIBRIUM NOT ACHIEVED WITHIN TOLERANCE.
 
	SYMMETRIC NEW DIRECT SPARSE SOLVER RUNNING ON
 	1 HOST x 1 MPI RANK PER HOST x 8 THREADS PER RANK
        NUMBER OF EQUATIONS:  3480
        NUMBER OF RHS:        1
        NUMBER OF FLOPS:      4.261e+07
        SOLVER ELAPSED TIME:  3ms
 

 ***WARNING: THE SYSTEM MATRIX HAS 727 NEGATIVE EIGENVALUES.
             EXPLANATIONS ARE SUGGESTED AFTER THE FIRST OCCURRENCE OF THIS MESSAGE.

               CONVERGENCE CHECKS FOR EQUILIBRIUM ITERATION     3


 AVERAGE FORCE                      1.582E+07   TIME AVG. FORCE       1.582E+07
 LARGEST SCALED RESIDUAL FORCE      9.122E+08   AT NODE        839   DOF  2
   INSTANCE: COMPOSITE_PLIES-1                                                               
  CORRESPONDING RESIDUAL FORCE      9.122E+08
 LARGEST INCREMENT OF DISP.         1.811E+03   AT NODE        810   DOF  3
   INSTANCE: COMPOSITE_PLIES-1                                                               
 LARGEST CORRECTION TO DISP.        1.807E+03   AT NODE        810   DOF  3
   INSTANCE: COMPOSITE_PLIES-1                                                               
          FORCE     EQUILIBRIUM NOT ACHIEVED WITHIN TOLERANCE.
 
	SYMMETRIC NEW DIRECT SPARSE SOLVER RUNNING ON
 	1 HOST x 1 MPI RANK PER HOST x 8 THREADS PER RANK
        NUMBER OF EQUATIONS:  3480
        NUMBER OF RHS:        1
        NUMBER OF FLOPS:      4.261e+07
        SOLVER ELAPSED TIME:  3ms
 

 ***WARNING: THE SYSTEM MATRIX HAS 756 NEGATIVE EIGENVALUES.
             EXPLANATIONS ARE SUGGESTED AFTER THE FIRST OCCURRENCE OF THIS MESSAGE.

               CONVERGENCE CHECKS FOR EQUILIBRIUM ITERATION     4


 AVERAGE FORCE                      1.594E+09   TIME AVG. FORCE       1.594E+09
 LARGEST SCALED RESIDUAL FORCE     -3.056E+11   AT NODE        497   DOF  3
   INSTANCE: COMPOSITE_PLIES-1                                                               
  CORRESPONDING RESIDUAL FORCE     -3.056E+11
 LARGEST INCREMENT OF DISP.         1.535E+06   AT NODE        497   DOF  3
   INSTANCE: COMPOSITE_PLIES-1                                                               
 LARGEST CORRECTION TO DISP.        1.536E+06   AT NODE        497   DOF  3
   INSTANCE: COMPOSITE_PLIES-1                                                               
          FORCE     EQUILIBRIUM NOT ACHIEVED WITHIN TOLERANCE.
 

 ***NOTE: THE SOLUTION APPEARS TO BE DIVERGING. CONVERGENCE IS JUDGED UNLIKELY.
 

 ***ERROR: TOO MANY ATTEMPTS MADE FOR THIS INCREMENT



     ANALYSIS SUMMARY:
     TOTAL OF          1  INCREMENTS
                       5  CUTBACKS IN AUTOMATIC INCREMENTATION
                      20  ITERATIONS INCLUDING CONTACT ITERATIONS IF PRESENT
                      20  PASSES THROUGH THE EQUATION SOLVER OF WHICH 
                      20  INVOLVE MATRIX DECOMPOSITION, INCLUDING
                       0  DECOMPOSITION(S) OF THE MASS MATRIX
                       1  REORDERING OF EQUATIONS TO MINIMIZE WAVEFRONT
                       0  ADDITIONAL RESIDUAL EVALUATIONS FOR LINE SEARCHES
                       0  ADDITIONAL OPERATOR EVALUATIONS FOR LINE SEARCHES
                       1  WARNING MESSAGES DURING USER INPUT PROCESSING
                      20  WARNING MESSAGES DURING ANALYSIS
                       0  ANALYSIS WARNINGS ARE NUMERICAL PROBLEM MESSAGES
                      20  ANALYSIS WARNINGS ARE NEGATIVE EIGENVALUE MESSAGES
                       1  ERROR MESSAGES



     JOB TIME SUMMARY
       USER TIME (SEC)      =      3.6    
       SYSTEM TIME (SEC)    =     0.30    
       TOTAL CPU TIME (SEC) =      3.9    
       WALLCLOCK TIME (SEC) =            1
       MEMORY PEAK (GB)     =            0
